*Heading
** Job name: section Model name: Model-1
** Generated by: Abaqus/CAE 6.14-4
*Preprint, echo=NO, model=NO, history=NO, contact=NO
**
** PARTS
**
*Part, name=SECTION
*End Part
**  
*Part, name=die
*Node
      1, 0.0399999991,           0.
      2,  0.039888151, 0.00298920367
      3, 0.0395532325, 0.00596169056
      4, 0.0389971174, 0.00890083704
      5, 0.0382229127, 0.0117902067
      6, 0.0372349508, 0.0146136414
      7, 0.0360387564, 0.0173553489
      8, 0.0346410163, 0.0199999996
      9, 0.0330495499, 0.0225328021
     10, 0.0312732607, 0.0249395929
     11, 0.0293220747, 0.0272069089
     12, 0.0272069089, 0.0293220747
     13, 0.0249395929, 0.0312732607
     14, 0.0225328021, 0.0330495499
     15, 0.0199999996, 0.0346410163
     16, 0.0173553489, 0.0360387564
     17, 0.0146136414, 0.0372349508
     18, 0.0117902067, 0.0382229127
     19, 0.00890083704, 0.0389971174
     20, 0.00596169056, 0.0395532325
     21, 0.00298920367,  0.039888151
     22,           0., 0.0399999991
*Element, type=R2D2
 1,  1,  2
 2,  2,  3
 3,  3,  4
 4,  4,  5
 5,  5,  6
 6,  6,  7
 7,  7,  8
 8,  8,  9
 9,  9, 10
10, 10, 11
11, 11, 12
12, 12, 13
13, 13, 14
14, 14, 15
15, 15, 16
16, 16, 17
17, 17, 18
18, 18, 19
19, 19, 20
20, 20, 21
21, 21, 22
*Node
     23,  2.44929358e-18, 0.0399999991,           0.
*Nset, nset=die-RefPt_, internal
23, 
*Elset, elset=die, generate
  1,  21,   1
*End Part
**  
**
** ASSEMBLY
**
*Assembly, name=Assembly
**  
*Instance, name=SECTION-1, part=SECTION
*Node
      1,           0., 0.0299999993
      2, 0.0299999993,           0.
      3, 0.0399999991,           0.
      4,           0., 0.0399999991
      5,           0.,           0.
      6, 0.00214017555, 0.0299235638
      7, 0.00426944532, 0.0296946429
      8, 0.00637695892, 0.0293144062
      9, 0.00845197681, 0.0287847891
     10, 0.0104839252, 0.0281084925
     11, 0.0124624502, 0.0272889603
     12, 0.0143774692, 0.0263303705
     13, 0.0162192248, 0.0252376068
     14, 0.0179783292, 0.0240162369
     15, 0.0196458213, 0.0226724874
     16, 0.0212132037, 0.0212132037
     17, 0.0226724874, 0.0196458213
     18, 0.0240162369, 0.0179783292
     19, 0.0252376068, 0.0162192248
     20, 0.0263303705, 0.0143774692
** ... 377 like lines cut
*Element, type=CPE4RT
  1,   1,   6,  88,  65
  2,   6,   7,  89,  88
  3,   7,   8,  90,  89
  4,   8,   9,  91,  90
  5,   9,  10,  92,  91
  6,  10,  11,  93,  92
  7,  11,  12,  94,  93
  8,  12,  13,  95,  94
  9,  13,  14,  96,  95
 10,  14,  15,  97,  96
 11,  15,  16,  98,  97
 12,  16,  17,  99,  98
 13,  17,  18, 100,  99
 14,  18,  19, 101, 100
 15,  19,  20, 102, 101
 16,  20,  21, 103, 102
 17,  21,  22, 104, 103
 18,  22,  23, 105, 104
 19,  23,  24, 106, 105
 20,  24,  25, 107, 106
** ... 343 like lines cut
*Nset, nset=Set-2, generate
   1,  397,    1
*Elset, elset=Set-2, generate
   1,  363,    1
*Orientation, name=Ori-1
1., 0., 0., 0., 1., 0.
3, 0.
** Section: km
*Solid Section, elset=Set-2, orientation=Ori-1, controls=EC-1, material=Lumped
,
*End Instance
**  
*Instance, name=die-1, part=die
*End Instance
**  
*Nset, nset=Set-59, instance=SECTION-1
  3,  4, 36, 37, 38, 39, 40, 41, 42, 43, 44, 45, 46, 47, 48, 49
 50, 51, 52, 53, 54, 55, 56
*Elset, elset=Set-59, instance=SECTION-1, generate
 199,  220,    1
*Nset, nset=all_km, instance=SECTION-1, generate
   1,  397,    1
*Elset, elset=all_km, instance=SECTION-1, generate
   1,  363,    1
*Nset, nset=dat, instance=SECTION-1, generate
 3,  5,  1
*Nset, nset=die_s, instance=die-1, generate
  1,  22,   1
*Elset, elset=die_s, instance=die-1, generate
  1,  21,   1
*Elset, elset=e_dat, instance=SECTION-1
 199, 220, 253
*Nset, nset=km_s, instance=SECTION-1
  3,  4, 36, 37, 38, 39, 40, 41, 42, 43, 44, 45, 46, 47, 48, 49
 50, 51, 52, 53, 54, 55, 56
*Elset, elset=km_s, instance=SECTION-1, generate
 199,  220,    1
*Nset, nset=refp, instance=die-1
 23,
*Nset, nset=x0, instance=SECTION-1
  1,  4,  5, 57, 58, 59, 60, 61, 62, 63, 64, 65, 77, 78, 79, 80
 81, 82, 83, 84, 85, 86, 87
*Elset, elset=x0, instance=SECTION-1
   1,  23,  45,  67,  89, 111, 133, 155, 177, 199, 242, 243, 244, 245, 246, 247
 248, 249, 250, 251, 252, 253
*Nset, nset=y_symm, instance=SECTION-1
  2,  3,  5, 27, 28, 29, 30, 31, 32, 33, 34, 35, 66, 67, 68, 69
 70, 71, 72, 73, 74, 75, 76
*Elset, elset=y_symm, instance=SECTION-1
  22,  44,  66,  88, 110, 132, 154, 176, 198, 220, 221, 253, 264, 275, 286, 297
 308, 319, 330, 341, 352, 363
*Elset, elset=_die_s1_SPOS, internal, instance=die-1, generate
  1,  21,   1
*Surface, type=ELEMENT, name=die_s1
_die_s1_SPOS, SPOS
*Elset, elset=_km_S1_S3, internal, instance=SECTION-1, generate
 199,  220,    1
*Surface, type=ELEMENT, name=km_S1
_km_S1_S3, S3
*Rigid Body, ref node=die-1.die-RefPt_, elset=die-1.die
*End Assembly
** 
** ELEMENT CONTROLS
** 
*Section Controls, name=EC-1, hourglass=ENHANCED
1., 1., 1.
** 
** MATERIALS
** 
*Material, name=Lumped
*Conductivity, type=ORTHO
 0.5689, 0.5689, 0.5689
*Density
2105.,
*Depvar
     79,
*Expansion, type=ORTHO, user, zero=30.
 1e-05,
*Heat Generation
*Specific Heat, dependencies=1
 975.962,       0.,       0.
 981.061,   3.0303,       0.
  986.16,  6.06061,       0.
 991.259,  9.09091,       0.
 996.358,  12.1212,       0.
 1001.46,  15.1515,       0.
 1006.56,  18.1818,       0.
 1011.66,  21.2121,       0.
 1016.75,  24.2424,       0.
 1021.85,  27.2727,       0.
 1026.95,   30.303,       0.
 1032.05,  33.3333,       0.
 1037.15,  36.3636,       0.
 1042.25,  39.3939,       0.
 1047.35,  42.4242,       0.
 1052.45,  45.4545,       0.
 1057.55,  48.4848,       0.
 1062.65,  51.5152,       0.
 1067.74,  54.5455,       0.
 1072.84,  57.5758,       0.
** ... 9980 like lines cut
*User Defined Field
*User Material, constants=7
 1.64e+08, 7.308e+10,      0.22,  5.04e-06,  5.76e-05,      0.65,        3.
** 
** INTERACTION PROPERTIES
** 
*Surface Interaction, name=norm
1.,
*Surface Behavior, pressure-overclosure=HARD
** 
** BOUNDARY CONDITIONS
** 
** Name: all_dofs Type: Displacement/Rotation
*Boundary
refp, 1, 1
refp, 2, 2
refp, 6, 6
** Name: x_symm Type: Symmetry/Antisymmetry/Encastre
*Boundary
x0, XSYMM
** Name: y_symm Type: Symmetry/Antisymmetry/Encastre
*Boundary
y_symm, YSYMM
** 
** PREDEFINED FIELDS
** 
** Name: T0   Type: Temperature
*Initial Conditions, type=TEMPERATURE
all_km, 50.
** 
** INTERACTIONS
** 
** Interaction: mech
*Contact Pair, interaction=norm, type=SURFACE TO SURFACE
km_S1, die_s1
** ----------------------------------------------------------------
** 
** STEP: die
** 
*Step, name=die, nlgeom=YES, inc=1000000
*Coupled Temperature-displacement, creep=none, deltmx=200.
5., 1200., 0.0101068, 10.
** 
** INTERACTIONS
** 
** Interaction: film
*Sfilm
km_S1, FNU, 0., 0.
** 
** OUTPUT REQUESTS
** 
*Restart, write, frequency=0
** 
** FIELD OUTPUT: F-Output-1
** 
*Output, field
*Node Output
NT, U
*Element Output, directions=YES
EE, FV, LE, S, SDV, TEMP, THE
** 
** HISTORY OUTPUT: H-Output-1
** 
*Output, history
*Element Output, elset=e_dat
EE11, EE12, EE13, EE22, EE23, EE33, EEP, INV3, PRESS, S11, S12, S13, S22, S23, S33, SDV
SP, TEMP, THE11, THE12, THE13, THE22, THE23, THE33, THEP, TRESC
*Energy Output, elset=e_dat
ALLAE, ALLCD, ALLDMD, ALLEE, ALLFD, ALLIE, ALLJD, ALLKE, ALLKL, ALLPD, ALLQB, ALLSD, ALLSE, ALLVD, ALLWK, ETOTAL
*End Step
** ----------------------------------------------------------------
** 
** STEP: free0
** 
*Step, name=free0, nlgeom=YES, inc=1000
*Coupled Temperature-displacement, creep=none, deltmx=100.
1e-05, 1., 1e-10, 0.1
** 
** INTERACTIONS
** 
** Interaction: mech
*Model Change, type=CONTACT PAIR, remove
km_S1, die_s1
** 
** OUTPUT REQUESTS
** 
*Restart, write, frequency=0
** 
** FIELD OUTPUT: F-Output-1
** 
*Output, field
*Node Output
NT, U
*Element Output, directions=YES
EE, FV, LE, S, SDV, TEMP, THE
** 
** HISTORY OUTPUT: H-Output-1
** 
*Output, history
*Element Output, elset=e_dat
EE11, EE12, EE13, EE22, EE23, EE33, EEP, INV3, PRESS, S11, S12, S13, S22, S23, S33, SDV
SP, TEMP, THE11, THE12, THE13, THE22, THE23, THE33, THEP, TRESC
*Energy Output, elset=e_dat
ALLAE, ALLCD, ALLDMD, ALLEE, ALLFD, ALLIE, ALLJD, ALLKE, ALLKL, ALLPD, ALLQB, ALLSD, ALLSE, ALLVD, ALLWK, ETOTAL
*End Step
** ----------------------------------------------------------------
** 
** STEP: free
** 
*Step, name=free, nlgeom=YES, inc=100000
*Coupled Temperature-displacement, creep=none, deltmx=200.
5., 5000., 0.05, 20.
** 
** OUTPUT REQUESTS
** 
*Restart, write, frequency=0
** 
** FIELD OUTPUT: F-Output-1
** 
*Output, field
*Node Output
NT, U
*Element Output, directions=YES
EE, LE, S, SDV, TEMP, THE
*Contact Output
CSTRESS, 
** 
** HISTORY OUTPUT: H-Output-1
** 
*Output, history
*Element Output, elset=e_dat
EE11, EE12, EE13, EE22, EE23, EE33, EEP, INV3, PRESS, S11, S12, S13, S22, S23, S33, SDV
SP, TEMP, THE11, THE12, THE13, THE22, THE23, THE33, THEP, TRESC
*Energy Output, elset=e_dat
ALLAE, ALLCD, ALLDMD, ALLEE, ALLFD, ALLIE, ALLJD, ALLKE, ALLKL, ALLPD, ALLQB, ALLSD, ALLSE, ALLVD, ALLWK, ETOTAL
*End Step
